Version 4
SHEET 1 1696 680
WIRE 496 -80 464 -80
WIRE 640 -80 576 -80
WIRE 656 -80 640 -80
WIRE 880 -80 848 -80
WIRE 1024 -80 960 -80
WIRE 1040 -80 1024 -80
WIRE 1216 -80 1184 -80
WIRE 1360 -80 1296 -80
WIRE 1376 -80 1360 -80
WIRE 656 -32 656 -80
WIRE 1040 -32 1040 -80
WIRE 1376 -32 1376 -80
WIRE 272 16 -112 16
WIRE 656 64 656 48
WIRE 1040 64 1040 48
WIRE 1376 64 1376 48
WIRE 656 160 656 128
WIRE 1040 160 1040 128
WIRE 1376 160 1376 128
WIRE -112 288 -112 16
WIRE 272 288 272 16
WIRE 272 288 -112 288
WIRE 1584 400 -112 400
WIRE -112 592 -112 400
WIRE 1584 592 1584 400
WIRE 1584 592 -112 592
FLAG -48 192 0
FLAG -48 112 Ve
IOPIN -48 112 Out
FLAG 656 160 0
FLAG 464 -80 Ve
IOPIN 464 -80 In
FLAG 640 -80 Vs1
IOPIN 640 -80 Out
FLAG 1040 160 0
FLAG 848 -80 Vs1
IOPIN 848 -80 In
FLAG 1024 -80 Vs2
IOPIN 1024 -80 Out
FLAG 1376 160 0
FLAG 1184 -80 Vs2
IOPIN 1184 -80 In
FLAG 1360 -80 Vs3
IOPIN 1360 -80 Out
SYMBOL voltage -48 96 R0
WINDOW 3 28 150 Left 2
WINDOW 123 24 124 Left 2
WINDOW 39 0 0 Left 0
SYMATTR Value wavefile=.\vuvuzela.wav
SYMATTR Value2 AC 1 0
SYMATTR InstName V1
SYMBOL res 592 -96 R90
WINDOW 0 0 56 VBottom 2
WINDOW 3 32 56 VTop 2
SYMATTR InstName R1
SYMATTR Value {R1}
SYMBOL ind 640 -48 R0
SYMATTR InstName L1
SYMATTR Value {L1}
SYMBOL cap 640 64 R0
SYMATTR InstName C1
SYMATTR Value {C}
SYMBOL res 976 -96 R90
WINDOW 0 0 56 VBottom 2
WINDOW 3 32 56 VTop 2
SYMATTR InstName R2
SYMATTR Value {R2}
SYMBOL ind 1024 -48 R0
SYMATTR InstName L2
SYMATTR Value {L2}
SYMBOL cap 1024 64 R0
SYMATTR InstName C2
SYMATTR Value {C}
SYMBOL res 1312 -96 R90
WINDOW 0 0 56 VBottom 2
WINDOW 3 32 56 VTop 2
SYMATTR InstName R3
SYMATTR Value {R3}
SYMBOL ind 1360 -48 R0
SYMATTR InstName L3
SYMATTR Value {L3}
SYMBOL cap 1360 64 R0
SYMATTR InstName C3
SYMATTR Value {C}
TEXT 384 232 Left 2 !.param m=1 f0=234 f1=702 f2=1170 C=10n
TEXT 384 288 Left 2 !.param L1=1 / ((2*PI*f0)* (2*PI*f0) * C) L2=1 / ((2*PI*f1)* (2*PI*f1) * C) L3=1 / ((2*PI*f2)* (2*PI*f2) * C)
TEXT -96 440 Left 2 !.tran 0 10 0 100
TEXT 384 344 Left 2 !.param R1=m / (f0*PI*C) R2=m / (f1*PI*C) R3=m / (f2*PI*C)
TEXT -96 552 Left 2 !;wave "C:\\Users\\schmi\\Documents\\Ecole\\ENIB\\2ème année\\S4P\\Electronique S4P\\Projet vuvuzela\\Projet-Vuvuzela\\wav\\RLC_1.wav"16 44100 Vs3
TEXT -96 496 Left 2 !;ac dec 100 10 50000
